<?xml version="1.0" encoding="iso-8859-1"?>

<configuration xmlns:xsi="http://www.w3.org/2001/XMLSchema-instance" xsi:noNamespaceSchemaLocation="http://sumo.sf.net/xsd/sumoConfiguration.xsd">

    <input>
        <net-file value="kopru1.net.xml"/>
        <route-files value="kopru1.50.rou.xml"/>
		<!-- <additional-files value="kopru1.add.xml"/> -->
    </input>


<!--
    <report>
        <no-duration-log value="true"/>
        <no-step-log value="true"/>
    </report>
-->
</configuration>
