<?xml version="1.0" encoding="UTF-8"?>

<!-- generated on 13.02.2018 17:04:15 by Netedit Version 0.31.0
<?xml version="1.0" encoding="UTF-8"?>

<configuration xmlns:xsi="http://www.w3.org/2001/XMLSchema-instance" xsi:noNamespaceSchemaLocation="http://sumo.dlr.de/xsd/netconvertConfiguration.xsd">

    <input>
        <sumo-net-file value="D:\kopru1\kopru1.net.xml"/>
    </input>

    <output>
        <output-file value="D:\kopru1\kopru1.net.xml"/>
    </output>

    <processing>
        <no-turnarounds value="true"/>
        <offset.disable-normalization value="true"/>
        <lefthand value="false"/>
        <junctions.corner-detail value="0"/>
        <rectangular-lane-cut value="false"/>
        <walkingareas value="false"/>
    </processing>

</configuration>
-->

<net version="0.27" xmlns:xsi="http://www.w3.org/2001/XMLSchema-instance" xsi:noNamespaceSchemaLocation="http://sumo.dlr.de/xsd/net_file.xsd">

    <location netOffset="-828130.67,2303.79" convBoundary="0.00,0.00,8192.35,8485.05" origBoundary="-0.052481,-0.020815,0.021040,0.055849" projParameter="+proj=utm +zone=30 +ellps=WGS84 +datum=WGS84 +units=m +no_defs"/>

    <type id="highway.bridleway" priority="1" numLanes="1" speed="2.78" allow="pedestrian" oneway="1" width="2.00"/>
    <type id="highway.bus_guideway" priority="1" numLanes="1" speed="8.33" allow="bus" oneway="1"/>
    <type id="highway.cycleway" priority="1" numLanes="1" speed="5.56" allow="bicycle" oneway="0" width="1.00"/>
    <type id="highway.footway" priority="1" numLanes="1" speed="2.78" allow="pedestrian" oneway="1" width="2.00"/>
    <type id="highway.ford" priority="1" numLanes="1" speed="2.78" allow="army" oneway="0"/>
    <type id="highway.living_street" priority="3" numLanes="1" speed="2.78" disallow="tram rail_urban rail rail_electric ship" oneway="0"/>
    <type id="highway.motorway" priority="13" numLanes="2" speed="44.44" allow="private emergency authority army vip passenger hov taxi bus coach delivery truck trailer motorcycle evehicle custom1 custom2" oneway="1"/>
    <type id="highway.motorway_link" priority="12" numLanes="1" speed="22.22" allow="private emergency authority army vip passenger hov taxi bus coach delivery truck trailer motorcycle evehicle custom1 custom2" oneway="1"/>
    <type id="highway.path" priority="1" numLanes="1" speed="2.78" allow="bicycle pedestrian" oneway="1" width="2.00"/>
    <type id="highway.pedestrian" priority="1" numLanes="1" speed="2.78" allow="pedestrian" oneway="1" width="2.00"/>
    <type id="highway.primary" priority="9" numLanes="2" speed="27.78" disallow="tram rail_urban rail rail_electric ship" oneway="0"/>
    <type id="highway.primary_link" priority="8" numLanes="1" speed="22.22" disallow="tram rail_urban rail rail_electric ship" oneway="0"/>
    <type id="highway.raceway" priority="14" numLanes="2" speed="83.33" allow="vip" oneway="0"/>
    <type id="highway.residential" priority="4" numLanes="1" speed="13.89" disallow="tram rail_urban rail rail_electric ship" oneway="0"/>
    <type id="highway.secondary" priority="7" numLanes="2" speed="27.78" disallow="tram rail_urban rail rail_electric ship" oneway="0"/>
    <type id="highway.secondary_link" priority="6" numLanes="1" speed="22.22" disallow="tram rail_urban rail rail_electric ship" oneway="0"/>
    <type id="highway.service" priority="2" numLanes="1" speed="5.56" allow="delivery bicycle pedestrian" oneway="0"/>
    <type id="highway.services" priority="1" numLanes="1" speed="8.33" disallow="tram rail_urban rail rail_electric ship" oneway="0"/>
    <type id="highway.stairs" priority="1" numLanes="1" speed="1.39" allow="pedestrian" oneway="1" width="2.00"/>
    <type id="highway.step" priority="1" numLanes="1" speed="1.39" allow="pedestrian" oneway="1" width="2.00"/>
    <type id="highway.steps" priority="1" numLanes="1" speed="1.39" allow="pedestrian" oneway="1" width="2.00"/>
    <type id="highway.tertiary" priority="6" numLanes="1" speed="22.22" disallow="tram rail_urban rail rail_electric ship" oneway="0"/>
    <type id="highway.tertiary_link" priority="5" numLanes="1" speed="22.22" disallow="tram rail_urban rail rail_electric ship" oneway="0"/>
    <type id="highway.track" priority="1" numLanes="1" speed="5.56" disallow="tram rail_urban rail rail_electric ship" oneway="0"/>
    <type id="highway.trunk" priority="11" numLanes="2" speed="27.78" disallow="tram rail_urban rail rail_electric bicycle pedestrian ship" oneway="0"/>
    <type id="highway.trunk_link" priority="10" numLanes="1" speed="22.22" disallow="tram rail_urban rail rail_electric bicycle pedestrian ship" oneway="0"/>
    <type id="highway.unclassified" priority="5" numLanes="1" speed="13.89" disallow="tram rail_urban rail rail_electric ship" oneway="0"/>
    <type id="highway.unsurfaced" priority="1" numLanes="1" speed="8.33" disallow="tram rail_urban rail rail_electric ship" oneway="0"/>
    <type id="railway.light_rail" priority="15" numLanes="1" speed="27.78" allow="rail_urban" oneway="1"/>
    <type id="railway.preserved" priority="15" numLanes="1" speed="27.78" allow="rail" oneway="1"/>
    <type id="railway.rail" priority="15" numLanes="1" speed="83.33" allow="rail rail_electric" oneway="1"/>
    <type id="railway.subway" priority="15" numLanes="1" speed="27.78" allow="rail_urban" oneway="1"/>
    <type id="railway.tram" priority="15" numLanes="1" speed="13.89" allow="tram" oneway="1"/>

    <edge id=":-39031_0" function="internal">
        <lane id=":-39031_0_0" index="0" allow="private emergency authority army vip passenger hov taxi bus coach delivery truck trailer motorcycle evehicle custom1 custom2" speed="22.22" length="0.44" shape="3095.64,503.46 3095.77,503.44 3095.86,503.44 3095.95,503.44 3096.08,503.46"/>
    </edge>
    <edge id=":-39058_0" function="internal">
        <lane id=":-39058_0_0" index="0" allow="private emergency authority army vip passenger hov taxi bus coach delivery truck trailer motorcycle evehicle custom1 custom2" speed="44.44" length="3.18" shape="1329.90,6833.26 1327.16,6834.13"/>
        <lane id=":-39058_0_1" index="1" allow="private emergency authority army vip passenger hov taxi bus coach delivery truck trailer motorcycle evehicle custom1 custom2" speed="44.44" length="3.18" shape="1327.36,6831.16 1327.16,6834.13"/>
        <lane id=":-39058_0_2" index="2" allow="private emergency authority army vip passenger hov taxi bus coach delivery truck trailer motorcycle evehicle custom1 custom2" speed="44.44" length="3.18" shape="1324.81,6829.06 1324.46,6829.89 1324.60,6830.62 1324.76,6831.36 1324.46,6832.24"/>
        <lane id=":-39058_0_3" index="3" allow="private emergency authority army vip passenger hov taxi bus coach delivery truck trailer motorcycle evehicle custom1 custom2" speed="44.44" length="3.18" shape="1322.27,6826.95 1321.87,6827.84 1321.97,6828.62 1322.10,6829.41 1321.76,6830.34"/>
    </edge>
    <edge id=":-39070_0" function="internal">
        <lane id=":-39070_0_0" index="0" allow="private emergency authority army vip passenger hov taxi bus coach delivery truck trailer motorcycle evehicle custom1 custom2" speed="22.22" length="12.84" shape="1756.75,6508.86 1754.07,6511.00 1751.52,6512.61 1748.77,6513.79 1745.47,6514.61"/>
    </edge>
    <edge id=":-39070_1" function="internal">
        <lane id=":-39070_1_0" index="0" disallow="tram rail_urban rail rail_electric ship" speed="25.00" length="6.42" shape="1756.75,6508.86 1755.06,6509.98 1753.87,6510.05 1753.19,6509.08 1753.01,6507.07"/>
    </edge>
    <edge id=":-39070_2" function="internal">
        <lane id=":-39070_2_0" index="0" allow="private emergency authority army vip passenger hov taxi bus coach delivery truck trailer motorcycle evehicle custom1 custom2" speed="25.00" length="5.63" shape="1748.40,6517.76 1748.59,6516.11 1748.16,6515.04 1747.12,6514.54 1745.47,6514.61"/>
    </edge>
    <edge id=":-39070_3" function="internal">
        <lane id=":-39070_3_0" index="0" disallow="tram rail_urban rail rail_electric ship" speed="27.78" length="11.28" shape="1748.40,6517.76 1749.16,6514.62 1749.51,6512.43 1749.63,6510.21 1749.71,6506.97"/>
        <lane id=":-39070_3_1" index="1" disallow="tram rail_urban rail rail_electric ship" speed="27.78" length="11.28" shape="1751.60,6518.58 1752.41,6515.23 1752.79,6512.89 1752.93,6510.52 1753.01,6507.07"/>
    </edge>
    <edge id=":-39088_0" function="internal">
        <lane id=":-39088_0_0" index="0" allow="private emergency authority army vip passenger hov taxi bus coach delivery truck trailer motorcycle evehicle custom1 custom2" speed="44.44" length="0.43" shape="2399.52,3886.98 2399.64,3886.80 2399.72,3886.68 2399.81,3886.56 2399.94,3886.39"/>
        <lane id=":-39088_0_1" index="1" allow="private emergency authority army vip passenger hov taxi bus coach delivery truck trailer motorcycle evehicle custom1 custom2" speed="44.44" length="0.43" shape="2402.30,3888.76 2402.37,3888.65 2402.42,3888.58 2402.47,3888.51 2402.55,3888.41"/>
        <lane id=":-39088_0_2" index="2" allow="private emergency authority army vip passenger hov taxi bus coach delivery truck trailer motorcycle evehicle custom1 custom2" speed="44.44" length="0.43" shape="2405.08,3890.54 2405.10,3890.51 2405.12,3890.48 2405.14,3890.46 2405.16,3890.43"/>
    </edge>
    <edge id=":-39089_0" function="internal">
        <lane id=":-39089_0_0" index="0" allow="private emergency authority army vip passenger hov taxi bus coach delivery truck trailer motorcycle evehicle custom1 custom2" speed="44.44" length="0.28" shape="2409.43,3874.13 2409.65,3873.85"/>
        <lane id=":-39089_0_1" index="1" allow="private emergency authority army vip passenger hov taxi bus coach delivery truck trailer motorcycle evehicle custom1 custom2" speed="44.44" length="0.28" shape="2412.04,3876.15 2412.21,3875.93"/>
        <lane id=":-39089_0_2" index="2" allow="private emergency authority army vip passenger hov taxi bus coach delivery truck trailer motorcycle evehicle custom1 custom2" speed="44.44" length="0.28" shape="2414.65,3878.17 2414.76,3878.02"/>
    </edge>
    <edge id=":-39096_0" function="internal">
        <lane id=":-39096_0_0" index="0" allow="private emergency authority army vip passenger hov taxi bus coach delivery truck trailer motorcycle evehicle custom1 custom2" speed="44.44" length="0.30" shape="2439.86,3836.80 2440.03,3836.59"/>
        <lane id=":-39096_0_1" index="1" allow="private emergency authority army vip passenger hov taxi bus coach delivery truck trailer motorcycle evehicle custom1 custom2" speed="44.44" length="0.30" shape="2442.42,3838.88 2442.60,3838.65"/>
        <lane id=":-39096_0_2" index="2" allow="private emergency authority army vip passenger hov taxi bus coach delivery truck trailer motorcycle evehicle custom1 custom2" speed="44.44" length="0.30" shape="2444.97,3840.97 2445.18,3840.72"/>
    </edge>
    <edge id=":-39099_0" function="internal">
        <lane id=":-39099_0_0" index="0" allow="private emergency authority army vip passenger hov taxi bus coach delivery truck trailer motorcycle evehicle custom1 custom2" speed="33.33" length="4.43" shape="2580.19,3681.93 2584.61,3682.20"/>
    </edge>
    <edge id=":-39099_1" function="internal">
        <lane id=":-39099_1_0" index="0" allow="private emergency authority army vip passenger hov taxi bus coach delivery truck trailer motorcycle evehicle custom1 custom2" speed="44.44" length="2.96" shape="2580.19,3681.93 2582.40,3679.82"/>
        <lane id=":-39099_1_1" index="1" allow="private emergency authority army vip passenger hov taxi bus coach delivery truck trailer motorcycle evehicle custom1 custom2" speed="44.44" length="2.96" shape="2582.50,3684.28 2584.64,3682.23"/>
        <lane id=":-39099_1_2" index="2" allow="private emergency authority army vip passenger hov taxi bus coach delivery truck trailer motorcycle evehicle custom1 custom2" speed="44.44" length="2.96" shape="2584.82,3686.63 2586.89,3684.65"/>
    </edge>
    <edge id=":-39103_0" function="internal">
        <lane id=":-39103_0_0" index="0" allow="private emergency authority army vip passenger hov taxi bus coach delivery truck trailer motorcycle evehicle custom1 custom2" speed="33.33" length="4.34" shape="3208.98,3086.32 3213.31,3086.60"/>
    </edge>
    <edge id=":-39103_1" function="internal">
        <lane id=":-39103_1_0" index="0" allow="private emergency authority army vip passenger hov taxi bus coach delivery truck trailer motorcycle evehicle custom1 custom2" speed="44.44" length="2.72" shape="3208.98,3086.32 3211.06,3084.21"/>
        <lane id=":-39103_1_1" index="1" allow="private emergency authority army vip passenger hov taxi bus coach delivery truck trailer motorcycle evehicle custom1 custom2" speed="44.44" length="2.72" shape="3211.41,3088.55 3213.32,3086.62"/>
        <lane id=":-39103_1_2" index="2" allow="private emergency authority army vip passenger hov taxi bus coach delivery truck trailer motorcycle evehicle custom1 custom2" speed="44.44" length="2.72" shape="3213.84,3090.78 3215.58,3089.02"/>
    </edge>
    <edge id=":-39119_0" function="internal">
        <lane id=":-39119_0_0" index="0" allow="private emergency authority army vip passenger hov taxi bus coach delivery truck trailer motorcycle evehicle custom1 custom2" speed="44.44" length="0.30" shape="3397.88,1465.07 3397.79,1464.80"/>
        <lane id=":-39119_0_1" index="1" allow="private emergency authority army vip passenger hov taxi bus coach delivery truck trailer motorcycle evehicle custom1 custom2" speed="44.44" length="0.30" shape="3401.00,1463.99 3400.90,1463.71"/>
        <lane id=":-39119_0_2" index="2" allow="private emergency authority army vip passenger hov taxi bus coach delivery truck trailer motorcycle evehicle custom1 custom2" speed="44.44" length="0.30" shape="3404.12,1462.91 3404.02,1462.62"/>
    </edge>
    <edge id=":-39120_0" function="internal">
        <lane id=":-39120_0_0" index="0" allow="private emergency authority army vip passenger hov taxi bus coach delivery truck trailer motorcycle evehicle custom1 custom2" speed="44.44" length="0.33" shape="2936.85,687.93 2936.45,687.54"/>
        <lane id=":-39120_0_1" index="1" allow="private emergency authority army vip passenger hov taxi bus coach delivery truck trailer motorcycle evehicle custom1 custom2" speed="44.44" length="0.33" shape="2939.06,685.48 2938.83,685.25"/>
        <lane id=":-39120_0_2" index="2" allow="private emergency authority army vip passenger hov taxi bus coach delivery truck trailer motorcycle evehicle custom1 custom2" speed="44.44" length="0.33" shape="2941.28,683.03 2941.20,682.96"/>
    </edge>
    <edge id=":-39121_0" function="internal">
        <lane id=":-39121_0_0" index="0" allow="private emergency authority army vip passenger hov taxi bus coach delivery truck trailer motorcycle evehicle custom1 custom2" speed="33.33" length="3.19" shape="2927.57,673.60 2924.61,673.08"/>
        <lane id=":-39121_0_1" index="1" allow="private emergency authority army vip passenger hov taxi bus coach delivery truck trailer motorcycle evehicle custom1 custom2" speed="33.33" length="3.19" shape="2929.94,671.31 2929.14,670.85 2928.39,670.90 2927.63,670.97 2926.77,670.58"/>
    </edge>
    <edge id=":-39122_0" function="internal">
        <lane id=":-39122_0_0" index="0" allow="private emergency authority army vip passenger hov taxi bus coach delivery truck trailer motorcycle evehicle custom1 custom2" speed="44.44" length="0.25" shape="2980.53,676.63 2980.68,676.75"/>
        <lane id=":-39122_0_1" index="1" allow="private emergency authority army vip passenger hov taxi bus coach delivery truck trailer motorcycle evehicle custom1 custom2" speed="44.44" length="0.25" shape="2978.42,679.17 2978.66,679.36"/>
    </edge>
    <edge id=":-39123_0" function="internal">
        <lane id=":-39123_0_0" index="0" allow="private emergency authority army vip passenger hov taxi bus coach delivery truck trailer motorcycle evehicle custom1 custom2" speed="44.44" length="0.24" shape="2997.49,689.76 2997.72,689.95"/>
        <lane id=":-39123_0_1" index="1" allow="private emergency authority army vip passenger hov taxi bus coach delivery truck trailer motorcycle evehicle custom1 custom2" speed="44.44" length="0.24" shape="2995.47,692.37 2995.60,692.48"/>
    </edge>
    <edge id=":-39124_0" function="internal">
        <lane id=":-39124_0_0" index="0" allow="private emergency authority army vip passenger hov taxi bus coach delivery truck trailer motorcycle evehicle custom1 custom2" speed="44.44" length="0.28" shape="2964.28,663.17 2964.52,663.37"/>
        <lane id=":-39124_0_1" index="1" allow="private emergency authority army vip passenger hov taxi bus coach delivery truck trailer motorcycle evehicle custom1 custom2" speed="44.44" length="0.28" shape="2962.22,665.75 2962.42,665.91"/>
    </edge>
    <edge id=":-39125_0" function="internal">
        <lane id=":-39125_0_0" index="0" allow="private emergency authority army vip passenger hov taxi bus coach delivery truck trailer motorcycle evehicle custom1 custom2" speed="44.44" length="0.30" shape="2961.85,710.54 2961.63,710.34"/>
        <lane id=":-39125_0_1" index="1" allow="private emergency authority army vip passenger hov taxi bus coach delivery truck trailer motorcycle evehicle custom1 custom2" speed="44.44" length="0.30" shape="2964.06,708.09 2963.84,707.89"/>
        <lane id=":-39125_0_2" index="2" allow="private emergency authority army vip passenger hov taxi bus coach delivery truck trailer motorcycle evehicle custom1 custom2" speed="44.44" length="0.30" shape="2966.27,705.64 2966.05,705.44"/>
    </edge>
    <edge id=":-39145_0" function="internal">
        <lane id=":-39145_0_0" index="0" allow="private emergency authority army vip passenger hov taxi bus coach delivery truck trailer motorcycle evehicle custom1 custom2" speed="33.33" length="4.00" shape="3066.08,742.10 3066.60,743.17 3067.00,743.88 3067.49,744.53 3068.29,745.40"/>
    </edge>
    <edge id=":-39145_1" function="internal">
        <lane id=":-39145_1_0" index="0" allow="private emergency authority army vip passenger hov taxi bus coach delivery truck trailer motorcycle evehicle custom1 custom2" speed="44.44" length="8.24" shape="3059.94,741.77 3061.83,743.40 3063.05,744.60 3064.21,745.87 3065.92,747.69"/>
        <lane id=":-39145_1_1" index="1" allow="private emergency authority army vip passenger hov taxi bus coach delivery truck trailer motorcycle evehicle custom1 custom2" speed="44.44" length="8.24" shape="3057.83,744.31 3059.64,745.87 3060.80,747.02 3061.91,748.23 3063.54,749.98"/>
    </edge>
    <edge id=":-39160_0" function="internal">
        <lane id=":-39160_0_0" index="0" allow="delivery bicycle pedestrian" speed="25.00" length="16.08" shape="1920.80,5382.28 1920.76,5387.41 1921.36,5391.33 1922.24,5394.67 1923.02,5398.10"/>
    </edge>
    <edge id=":-39160_1" function="internal">
        <lane id=":-39160_1_0" index="0" allow="private emergency authority army vip passenger hov taxi bus coach delivery truck trailer motorcycle evehicle custom1 custom2" speed="44.44" length="16.03" shape="1920.80,5382.28 1919.48,5398.25"/>
        <lane id=":-39160_1_1" index="1" allow="private emergency authority army vip passenger hov taxi bus coach delivery truck trailer motorcycle evehicle custom1 custom2" speed="44.44" length="16.03" shape="1917.51,5382.01 1916.19,5397.98"/>
        <lane id=":-39160_1_2" index="2" allow="private emergency authority army vip passenger hov taxi bus coach delivery truck trailer motorcycle evehicle custom1 custom2" speed="44.44" length="16.03" shape="1914.22,5381.74 1912.90,5397.71"/>
    </edge>
    <edge id=":-39182_0" function="internal">
        <lane id=":-39182_0_0" index="0" allow="private emergency authority army vip passenger hov taxi bus coach delivery truck trailer motorcycle evehicle custom1 custom2" speed="33.33" length="19.97" shape="3352.37,1254.02 3353.57,1259.76 3354.26,1263.73 3355.19,1267.63 3357.11,1273.15"/>
        <lane id=":-39182_0_1" index="1" allow="private emergency authority army vip passenger hov taxi bus coach delivery truck trailer motorcycle evehicle custom1 custom2" speed="33.33" length="19.97" shape="3349.16,1254.77 3350.38,1260.61 3351.09,1264.68 3352.06,1268.68 3354.03,1274.34"/>
    </edge>
    <edge id=":-39182_2" function="internal">
        <lane id=":-39182_2_0" index="0" allow="private emergency authority army vip passenger hov taxi bus coach delivery truck trailer motorcycle evehicle custom1 custom2" speed="44.44" length="20.36" shape="3345.90,1255.82 3347.78,1261.47 3348.48,1265.58 3349.15,1269.74 3350.95,1275.53"/>
        <lane id=":-39182_2_1" index="1" allow="private emergency authority army vip passenger hov taxi bus coach delivery truck trailer motorcycle evehicle custom1 custom2" speed="44.44" length="20.36" shape="3342.85,1257.07 3344.72,1262.72 3345.42,1266.82 3346.08,1270.96 3347.87,1276.71"/>
    </edge>
    <edge id=":-39183_0" function="internal">
        <lane id=":-39183_0_0" index="0" allow="private emergency authority army vip passenger hov taxi bus coach delivery truck trailer motorcycle evehicle custom1 custom2" speed="44.44" length="0.31" shape="3428.72,1458.64 3428.87,1459.03"/>
        <lane id=":-39183_0_1" index="1" allow="private emergency authority army vip passenger hov taxi bus coach delivery truck trailer motorcycle evehicle custom1 custom2" speed="44.44" length="0.31" shape="3425.64,1459.83 3425.76,1460.15"/>
        <lane id=":-39183_0_2" index="2" allow="private emergency authority army vip passenger hov taxi bus coach delivery truck trailer motorcycle evehicle custom1 custom2" speed="44.44" length="0.31" shape="3422.56,1461.02 3422.66,1461.28"/>
        <lane id=":-39183_0_3" index="3" allow="private emergency authority army vip passenger hov taxi bus coach delivery truck trailer motorcycle evehicle custom1 custom2" speed="44.44" length="0.31" shape="3419.49,1462.21 3419.56,1462.40"/>
    </edge>
    <edge id=":-39184_0" function="internal">
        <lane id=":-39184_0_0" index="0" allow="private emergency authority army vip passenger hov taxi bus coach delivery truck trailer motorcycle evehicle custom1 custom2" speed="33.33" length="9.99" shape="1769.68,6068.47 1770.44,6065.75 1770.25,6063.76 1769.50,6061.73 1768.60,6058.87"/>
    </edge>
    <edge id=":-39184_1" function="internal">
        <lane id=":-39184_1_0" index="0" allow="private emergency authority army vip passenger hov taxi bus coach delivery truck trailer motorcycle evehicle custom1 custom2" speed="44.44" length="10.17" shape="1769.68,6068.47 1770.69,6065.74 1771.20,6063.80 1771.66,6061.85 1772.49,6059.04"/>
        <lane id=":-39184_1_1" index="1" allow="private emergency authority army vip passenger hov taxi bus coach delivery truck trailer motorcycle evehicle custom1 custom2" speed="44.44" length="10.17" shape="1772.74,6069.72 1773.77,6066.93 1774.30,6064.95 1774.77,6062.95 1775.62,6060.09"/>
        <lane id=":-39184_1_2" index="2" allow="private emergency authority army vip passenger hov taxi bus coach delivery truck trailer motorcycle evehicle custom1 custom2" speed="44.44" length="10.17" shape="1775.79,6070.97 1776.85,6068.12 1777.39,6066.10 1777.88,6064.06 1778.75,6061.14"/>
        <lane id=":-39184_1_3" index="3" allow="private emergency authority army vip passenger hov taxi bus coach delivery truck trailer motorcycle evehicle custom1 custom2" speed="44.44" length="10.17" shape="1778.85,6072.22 1779.92,6069.31 1780.48,6067.25 1780.99,6065.17 1781.88,6062.19"/>
    </edge>
    <edge id=":-39198_0" function="internal">
        <lane id=":-39198_0_0" index="0" allow="private emergency authority army vip passenger hov taxi bus coach delivery truck trailer motorcycle evehicle custom1 custom2" speed="44.44" length="0.35" shape="1906.23,5121.16 1906.27,5120.70"/>
        <lane id=":-39198_0_1" index="1" allow="private emergency authority army vip passenger hov taxi bus coach delivery truck trailer motorcycle evehicle custom1 custom2" speed="44.44" length="0.35" shape="1909.52,5121.38 1909.55,5121.00"/>
        <lane id=":-39198_0_2" index="2" allow="private emergency authority army vip passenger hov taxi bus coach delivery truck trailer motorcycle evehicle custom1 custom2" speed="44.44" length="0.35" shape="1912.81,5121.60 1912.84,5121.30"/>
        <lane id=":-39198_0_3" index="3" allow="private emergency authority army vip passenger hov taxi bus coach delivery truck trailer motorcycle evehicle custom1 custom2" speed="44.44" length="0.35" shape="1916.11,5121.82 1916.13,5121.59"/>
    </edge>
    <edge id=":-39199_0" function="internal">
        <lane id=":-39199_0_0" index="0" allow="private emergency authority army vip passenger hov taxi bus coach delivery truck trailer motorcycle evehicle custom1 custom2" speed="33.33" length="32.98" shape="1911.30,5065.06 1916.62,5032.52"/>
    </edge>
    <edge id=":-39199_1" function="internal">
        <lane id=":-39199_1_0" index="0" allow="private emergency authority army vip passenger hov taxi bus coach delivery truck trailer motorcycle evehicle custom1 custom2" speed="44.44" length="32.67" shape="1914.59,5065.36 1919.99,5032.87"/>
        <lane id=":-39199_1_1" index="1" allow="private emergency authority army vip passenger hov taxi bus coach delivery truck trailer motorcycle evehicle custom1 custom2" speed="44.44" length="32.67" shape="1917.87,5065.66 1923.24,5033.43"/>
        <lane id=":-39199_1_2" index="2" allow="private emergency authority army vip passenger hov taxi bus coach delivery truck trailer motorcycle evehicle custom1 custom2" speed="44.44" length="32.67" shape="1921.16,5065.96 1926.49,5033.98"/>
    </edge>
    <edge id=":-39200_0" function="internal">
        <lane id=":-39200_0_0" index="0" allow="private emergency authority army vip passenger hov taxi bus coach delivery truck trailer motorcycle evehicle custom1 custom2" speed="44.44" length="0.30" shape="1424.18,6665.54 1424.37,6665.29"/>
        <lane id=":-39200_0_1" index="1" allow="private emergency authority army vip passenger hov taxi bus coach delivery truck trailer motorcycle evehicle custom1 custom2" speed="44.44" length="0.30" shape="1426.74,6667.61 1426.93,6667.37"/>
        <lane id=":-39200_0_2" index="2" allow="private emergency authority army vip passenger hov taxi bus coach delivery truck trailer motorcycle evehicle custom1 custom2" speed="44.44" length="0.30" shape="1429.31,6669.68 1429.50,6669.45"/>
        <lane id=":-39200_0_3" index="3" allow="private emergency authority army vip passenger hov taxi bus coach delivery truck trailer motorcycle evehicle custom1 custom2" speed="44.44" length="0.30" shape="1431.88,6671.76 1432.06,6671.54"/>
    </edge>
    <edge id=":-39205_0" function="internal">
        <lane id=":-39205_0_0" index="0" allow="private emergency authority army vip passenger hov taxi bus coach delivery truck trailer motorcycle evehicle custom1 custom2" speed="44.44" length="0.38" shape="1642.23,6349.92 1642.36,6349.70"/>
        <lane id=":-39205_0_1" index="1" allow="private emergency authority army vip passenger hov taxi bus coach delivery truck trailer motorcycle evehicle custom1 custom2" speed="44.44" length="0.38" shape="1645.10,6351.56 1645.26,6351.27"/>
        <lane id=":-39205_0_2" index="2" allow="private emergency authority army vip passenger hov taxi bus coach delivery truck trailer motorcycle evehicle custom1 custom2" speed="44.44" length="0.38" shape="1647.96,6353.20 1648.16,6352.84"/>
        <lane id=":-39205_0_3" index="3" allow="private emergency authority army vip passenger hov taxi bus coach delivery truck trailer motorcycle evehicle custom1 custom2" speed="44.44" length="0.38" shape="1650.82,6354.85 1651.06,6354.41"/>
    </edge>
    <edge id=":-39208_0" function="internal">
        <lane id=":-39208_0_0" index="0" allow="private emergency authority army vip passenger hov taxi bus coach delivery truck trailer motorcycle evehicle custom1 custom2" speed="22.22" length="0.30" shape="1944.04,4734.16 1944.12,4733.88"/>
    </edge>
    <edge id=":-39211_0" function="internal">
        <lane id=":-39211_0_0" index="0" allow="private emergency authority army vip passenger hov taxi bus coach delivery truck trailer motorcycle evehicle custom1 custom2" speed="44.44" length="0.29" shape="1702.12,6297.14 1701.97,6297.44"/>
        <lane id=":-39211_0_1" index="1" allow="private emergency authority army vip passenger hov taxi bus coach delivery truck trailer motorcycle evehicle custom1 custom2" speed="44.44" length="0.29" shape="1699.18,6295.64 1699.05,6295.90"/>
        <lane id=":-39211_0_2" index="2" allow="private emergency authority army vip passenger hov taxi bus coach delivery truck trailer motorcycle evehicle custom1 custom2" speed="44.44" length="0.29" shape="1696.25,6294.14 1696.14,6294.35"/>
    </edge>
    <edge id=":-39212_0" function="internal">
        <lane id=":-39212_0_0" index="0" allow="private emergency authority army vip passenger hov taxi bus coach delivery truck trailer motorcycle evehicle custom1 custom2" speed="44.44" length="0.32" shape="1666.45,6364.28 1666.19,6364.74"/>
        <lane id=":-39212_0_1" index="1" allow="private emergency authority army vip passenger hov taxi bus coach delivery truck trailer motorcycle evehicle custom1 custom2" speed="44.44" length="0.32" shape="1663.53,6362.73 1663.38,6363.00"/>
        <lane id=":-39212_0_2" index="2" allow="private emergency authority army vip passenger hov taxi bus coach delivery truck trailer motorcycle evehicle custom1 custom2" speed="44.44" length="0.32" shape="1660.62,6361.18 1660.57,6361.27"/>
    </edge>
    <edge id=":-39214_0" function="internal">